data_Na2(SO4)2 Abinit optimised
_space_group_IT_number           2
_symmetry_cell_setting           triclinic
_symmetry_space_group_name_Hall  '-P 1'
_symmetry_space_group_name_H-M   'P -1'
_cell_length_a                   4.780
_cell_length_b                   5.575
_cell_length_c                   6.091
_cell_angle_alpha                101.871
_cell_angle_beta                 103.337
_cell_angle_gamma                97.418
_cell_formula_units_Z            1
loop_
_symmetry_equiv_pos_as_xyz
x,y,z
-x,-y,-z
loop_
_atom_site_label
_atom_site_fract_x
_atom_site_fract_y
_atom_site_fract_z
S1   -3.87022838044E-01 -2.27799427258E-01  2.34508860740E-01
Na1   3.47285202981E-02  3.14611604927E-01  2.13013789745E-01
O1   -4.24834455980E-01  4.30197929292E-02  4.12589968802E-01
O2   -2.22062613804E-01 -9.68282395686E-02  9.26384749577E-02
O3    3.01683359591E-01 -3.67521021694E-01  1.09119700047E-01
O4   -2.14955515236E-01 -3.68398750965E-01  3.92769828549E-01
